primaquine
  PyMOL2.5          3D                             0

 41 42  0  0  0  0  0  0  0  0999 V2000
    6.0500   11.2310   45.6720 C   0  0  0  0  0  0  0  0  0  0  0  0
    6.8280    9.0100   49.7440 N   0  3  0  0  0  0  0  0  0  0  0  0
    0.7670   13.6510   47.8660 O   0  0  0  0  0  0  0  0  0  0  0  0
    5.3370   10.5780   46.8600 C   0  0  0  0  0  0  0  0  0  0  0  0
    3.9430   10.2550   46.5560 N   0  0  0  0  0  0  0  0  0  0  0  0
    5.5510   11.4000   48.1500 C   0  0  0  0  0  0  0  0  0  0  0  0
    3.3060   10.7070   43.8690 N   0  0  0  0  0  0  0  0  0  0  0  0
    5.0410   10.7730   49.4660 C   0  0  0  0  0  0  0  0  0  0  0  0
    5.3840    9.2950   49.7000 C   0  0  0  0  0  0  0  0  0  0  0  0
    3.0430   11.2780   46.1880 C   0  0  0  0  0  0  0  0  0  0  0  0
    2.6990   11.4520   44.8220 C   0  0  0  0  0  0  0  0  0  0  0  0
    1.7070   12.4110   44.4830 C   0  0  0  0  0  0  0  0  0  0  0  0
    1.0610   13.1700   45.4750 C   0  0  0  0  0  0  0  0  0  0  0  0
    1.3910   12.9840   46.8350 C   0  0  0  0  0  0  0  0  0  0  0  0
    2.3950   12.0560   47.1730 C   0  0  0  0  0  0  0  0  0  0  0  0
   -0.4440   14.3420   47.5710 C   0  0  0  0  0  0  0  0  0  0  0  0
    1.3480   12.5860   43.1330 C   0  0  0  0  0  0  0  0  0  0  0  0
    1.9840   11.7900   42.1680 C   0  0  0  0  0  0  0  0  0  0  0  0
    2.9420   10.8630   42.5910 C   0  0  0  0  0  0  0  0  0  0  0  0
    3.4180   10.2340   41.8390 H   0  0  0  0  0  0  0  0  0  0  0  0
    6.1210   12.3060   45.8360 H   0  0  0  0  0  0  0  0  0  0  0  0
    7.1650    8.8290   48.8090 H   0  0  0  0  0  0  0  0  0  0  0  0
    5.7950    9.6080   47.0550 H   0  0  0  0  0  0  0  0  0  0  0  0
    3.6240    9.2980   46.6100 H   0  0  0  0  0  0  0  0  0  0  0  0
    5.0440   12.3560   48.0210 H   0  0  0  0  0  0  0  0  0  0  0  0
    3.9550   10.8680   49.4790 H   0  0  0  0  0  0  0  0  0  0  0  0
    4.9450    8.9880   50.6490 H   0  0  0  0  0  0  0  0  0  0  0  0
    0.3050   13.9030   45.1940 H   0  0  0  0  0  0  0  0  0  0  0  0
    2.6790   11.9350   48.2190 H   0  0  0  0  0  0  0  0  0  0  0  0
   -0.7790   14.0770   46.5680 H   0  0  0  0  0  0  0  0  0  0  0  0
    0.5960   13.3200   42.8450 H   0  0  0  0  0  0  0  0  0  0  0  0
    1.7370   11.8920   41.1110 H   0  0  0  0  0  0  0  0  0  0  0  0
   -0.2720   15.4170   47.6250 H   0  0  0  0  0  0  0  0  0  0  0  0
    5.4870   11.0380   44.7590 H   0  0  0  0  0  0  0  0  0  0  0  0
    6.9940    8.2010   50.3250 H   0  0  0  0  0  0  0  0  0  0  0  0
    6.6320   11.4710   48.2680 H   0  0  0  0  0  0  0  0  0  0  0  0
    5.5520   11.3160   50.2610 H   0  0  0  0  0  0  0  0  0  0  0  0
    4.9820    8.7420   48.8510 H   0  0  0  0  0  0  0  0  0  0  0  0
   -1.2080   14.0600   48.2950 H   0  0  0  0  0  0  0  0  0  0  0  0
    7.0520   10.8120   45.5750 H   0  0  0  0  0  0  0  0  0  0  0  0
    7.3160    9.8060   50.1290 H   0  0  0  0  0  0  0  0  0  0  0  0
  1  4  1  0  0  0  0
  1 21  1  0  0  0  0
  1 34  1  0  0  0  0
  1 40  1  0  0  0  0
  2  9  1  0  0  0  0
  2 22  1  0  0  0  0
  2 35  1  0  0  0  0
  2 41  1  0  0  0  0
  3 14  1  0  0  0  0
  3 16  1  0  0  0  0
  4  5  1  0  0  0  0
  4  6  1  0  0  0  0
  4 23  1  0  0  0  0
  5 10  1  0  0  0  0
  5 24  1  0  0  0  0
  6  8  1  0  0  0  0
  6 25  1  0  0  0  0
  6 36  1  0  0  0  0
  7 11  4  0  0  0  0
  7 19  4  0  0  0  0
  8  9  1  0  0  0  0
  8 26  1  0  0  0  0
  8 37  1  0  0  0  0
  9 27  1  0  0  0  0
  9 38  1  0  0  0  0
 10 11  4  0  0  0  0
 10 15  4  0  0  0  0
 11 12  4  0  0  0  0
 12 13  4  0  0  0  0
 12 17  4  0  0  0  0
 13 14  4  0  0  0  0
 13 28  1  0  0  0  0
 14 15  4  0  0  0  0
 15 29  1  0  0  0  0
 16 30  1  0  0  0  0
 16 33  1  0  0  0  0
 16 39  1  0  0  0  0
 17 18  4  0  0  0  0
 17 31  1  0  0  0  0
 18 19  4  0  0  0  0
 18 32  1  0  0  0  0
 19 20  1  0  0  0  0
M  END
>  <pdb_header>


$$$$
